Version 4
SHEET 1 1068 680
WIRE 928 -64 432 -64
WIRE 864 16 800 16
WIRE 576 80 512 80
WIRE 432 144 432 -64
WIRE 432 144 304 144
WIRE 576 144 432 144
WIRE 928 144 928 16
WIRE 928 144 800 144
WIRE 576 208 336 208
WIRE 848 208 800 208
WIRE 512 256 512 80
WIRE 928 256 928 144
WIRE 928 256 512 256
WIRE 512 272 512 256
FLAG 576 16 0
FLAG 848 272 0
FLAG 512 336 0
FLAG 336 288 0
FLAG 864 96 0
FLAG 304 144 Vout
SYMBOL Misc\\NE555 688 112 R0
SYMATTR InstName U2
SYMBOL cap 496 272 R0
SYMATTR InstName C2
SYMATTR Value 1µ
SYMBOL cap 832 208 R0
SYMATTR InstName C1
SYMATTR Value 1µ
SYMBOL res 912 -80 R0
SYMATTR InstName R1
SYMATTR Value 160k
SYMBOL voltage 336 192 R0
WINDOW 123 0 0 Left 0
WINDOW 39 0 0 Left 0
SYMATTR InstName Vin
SYMATTR Value PULSE(0 1 1 0 0 1)
SYMBOL voltage 864 0 R0
SYMATTR InstName V2
SYMATTR Value 1V
TEXT 272 360 Left 2 !.tran 5
