Version 4
SHEET 1 880 680
SYMBOL Comparators\\LT1017 288 128 R0
SYMATTR InstName U1
SYMBOL voltage -96 160 R0
SYMATTR InstName V1
SYMBOL res 16 64 R90
WINDOW 0 0 56 VBottom 2
WINDOW 3 32 56 VTop 2
SYMATTR InstName R1
