Version 4
SHEET 1 1908 680
WIRE 832 -192 832 -224
WIRE 560 -80 496 -80
WIRE 704 -80 640 -80
WIRE 832 -48 832 -112
WIRE 704 -32 704 -80
WIRE 800 -32 704 -32
WIRE 1008 -16 864 -16
WIRE 1264 -16 1008 -16
WIRE 800 0 560 0
WIRE 1264 0 1264 -16
WIRE 1376 0 1264 0
WIRE 1376 16 1008 16
WIRE 1616 16 1440 16
WIRE 1904 16 1616 16
WIRE 0 32 -48 32
WIRE 128 32 80 32
WIRE 256 32 208 32
WIRE 368 32 336 32
WIRE 464 32 448 32
WIRE 1376 32 1152 32
WIRE 464 48 464 32
WIRE -48 64 -48 32
WIRE 464 64 464 48
WIRE 560 64 560 0
WIRE 560 64 464 64
WIRE 832 80 832 16
WIRE 464 96 464 64
WIRE -48 112 -48 64
WIRE 832 192 832 160
WIRE 1008 208 1008 16
WIRE 1152 208 1152 32
WIRE -48 224 -48 192
WIRE -48 256 -48 224
WIRE 224 256 -48 256
WIRE 432 256 304 256
WIRE 464 256 464 176
WIRE 464 256 432 256
WIRE 1008 288 1008 208
WIRE 1152 288 1152 208
WIRE 432 304 432 256
WIRE 1008 432 1008 368
WIRE 1152 432 1152 368
FLAG 432 304 0
FLAG 464 48 Ual
FLAG 496 -80 0
FLAG 832 -224 0
FLAG 1008 -16 Vs1
FLAG 832 192 0
FLAG 1008 432 0
FLAG 1152 432 0
FLAG 1616 16 TS
FLAG 1008 208 air
FLAG 1152 208 relai
FLAG -48 64 V1+
FLAG -48 224 V1-
SYMBOL voltage -48 96 R0
WINDOW 123 0 0 Left 0
WINDOW 39 0 0 Left 0
SYMATTR InstName V1
SYMATTR Value PULSE(0 60 2)
SYMBOL res 96 16 R90
WINDOW 0 0 56 VBottom 2
WINDOW 3 32 56 VTop 2
SYMATTR InstName R1
SYMATTR Value 10
SYMBOL res 224 16 R90
WINDOW 0 0 56 VBottom 2
WINDOW 3 32 56 VTop 2
SYMATTR InstName R2
SYMATTR Value 10
SYMBOL res 352 16 R90
WINDOW 0 0 56 VBottom 2
WINDOW 3 32 56 VTop 2
SYMATTR InstName R3
SYMATTR Value 10
SYMBOL res 464 16 R90
WINDOW 0 0 56 VBottom 2
WINDOW 3 32 56 VTop 2
SYMATTR InstName R4
SYMATTR Value 10
SYMBOL res 480 192 R180
WINDOW 0 36 76 Left 2
WINDOW 3 36 40 Left 2
SYMATTR InstName R5
SYMATTR Value 10
SYMBOL res 208 272 R270
WINDOW 0 32 56 VTop 2
WINDOW 3 0 56 VBottom 2
SYMATTR InstName R6
SYMATTR Value 10
SYMBOL Comparators\\LT1017 832 -16 R0
SYMATTR InstName U1
SYMBOL voltage 656 -80 R90
WINDOW 0 -32 56 VBottom 2
WINDOW 3 32 56 VTop 2
SYMATTR InstName V2
SYMATTR Value 6
SYMBOL voltage 832 -96 R180
WINDOW 0 24 96 Left 2
WINDOW 3 24 16 Left 2
WINDOW 123 0 0 Left 0
WINDOW 39 0 0 Left 0
SYMATTR InstName V3
SYMATTR Value 10
SYMBOL voltage 832 176 R180
WINDOW 0 24 96 Left 2
WINDOW 3 24 16 Left 2
SYMATTR InstName V4
SYMATTR Value 10
SYMBOL Digital\\and 1408 -32 R0
SYMATTR InstName A1
SYMBOL voltage 1008 272 R0
WINDOW 123 0 0 Left 0
WINDOW 39 0 0 Left 0
SYMATTR InstName air
SYMATTR Value PULSE(0 10 3)
SYMBOL voltage 1152 272 R0
WINDOW 123 0 0 Left 0
WINDOW 39 0 0 Left 0
SYMATTR InstName relai
SYMATTR Value PULSE(0 10 4)
TEXT -82 328 Left 2 !.tran 0 10 0
