Version 4
SHEET 1 2864 692
WIRE 2640 -208 2144 -208
WIRE 832 -192 832 -224
WIRE 2576 -128 2512 -128
WIRE 560 -80 496 -80
WIRE 704 -80 640 -80
WIRE 2288 -64 2224 -64
WIRE 832 -48 832 -112
WIRE 704 -32 704 -80
WIRE 800 -32 704 -32
WIRE 944 -16 864 -16
WIRE 1008 -16 944 -16
WIRE 1264 -16 1264 -64
WIRE 1264 -16 1200 -16
WIRE 800 0 560 0
WIRE 2000 0 2000 -112
WIRE 2144 0 2144 -208
WIRE 2144 0 2016 0
WIRE 2288 0 2144 0
WIRE 2640 0 2640 -128
WIRE 2640 0 2512 0
WIRE 0 32 -48 32
WIRE 128 32 80 32
WIRE 256 32 208 32
WIRE 368 32 336 32
WIRE 464 32 448 32
WIRE 464 48 464 32
WIRE 1248 48 1200 48
WIRE 1824 48 1248 48
WIRE -48 64 -48 32
WIRE 464 64 464 48
WIRE 560 64 560 0
WIRE 560 64 464 64
WIRE 1824 64 1456 64
WIRE 2064 64 1888 64
WIRE 2288 64 2064 64
WIRE 2560 64 2512 64
WIRE 832 80 832 16
WIRE 1824 80 1600 80
WIRE 464 96 464 64
WIRE -48 112 -48 64
WIRE 2224 112 2224 -64
WIRE 2640 112 2640 0
WIRE 2640 112 2224 112
WIRE 2224 128 2224 112
WIRE 832 192 832 160
WIRE 1888 208 1888 96
WIRE -48 224 -48 192
WIRE -48 256 -48 224
WIRE 224 256 -48 256
WIRE 432 256 304 256
WIRE 464 256 464 176
WIRE 464 256 432 256
WIRE 1456 256 1456 64
WIRE 1600 256 1600 80
WIRE 432 304 432 256
WIRE 1600 336 1600 256
WIRE 1600 480 1600 416
WIRE 1456 528 1456 256
WIRE 1456 672 1456 608
FLAG 432 304 0
FLAG 464 48 Ual
FLAG 496 -80 0
FLAG 832 -224 0
FLAG 832 192 0
FLAG 1456 672 0
FLAG 1600 480 0
FLAG 2064 64 TS
FLAG 1456 256 air
FLAG 1600 256 relai
FLAG -48 64 V1+
FLAG -48 224 V1-
FLAG 2288 -128 0
FLAG 2560 128 0
FLAG 2224 192 0
FLAG 2576 -48 0
FLAG 2016 0 o
FLAG 1936 -112 0
FLAG 1888 272 0
FLAG 1008 80 0
FLAG 1264 -144 0
FLAG 1248 128 0
FLAG 944 -16 Vcomp
SYMBOL voltage -48 96 R0
WINDOW 123 0 0 Left 0
WINDOW 39 0 0 Left 0
SYMATTR InstName Vbat
SYMATTR Value PULSE(0 80 2 0 0 2)
SYMBOL res 96 16 R90
WINDOW 0 0 56 VBottom 2
WINDOW 3 32 56 VTop 2
SYMATTR InstName R1
SYMATTR Value 10Meg
SYMBOL res 224 16 R90
WINDOW 0 0 56 VBottom 2
WINDOW 3 32 56 VTop 2
SYMATTR InstName R2
SYMATTR Value 10Meg
SYMBOL res 352 16 R90
WINDOW 0 0 56 VBottom 2
WINDOW 3 32 56 VTop 2
SYMATTR InstName R3
SYMATTR Value 10Meg
SYMBOL res 464 16 R90
WINDOW 0 0 56 VBottom 2
WINDOW 3 32 56 VTop 2
SYMATTR InstName R4
SYMATTR Value 10Meg
SYMBOL res 480 192 R180
WINDOW 0 36 76 Left 2
WINDOW 3 36 40 Left 2
SYMATTR InstName R5
SYMATTR Value 10Meg
SYMBOL res 208 272 R270
WINDOW 0 32 56 VTop 2
WINDOW 3 0 56 VBottom 2
SYMATTR InstName R6
SYMATTR Value 10Meg
SYMBOL Comparators\\LT1017 832 -16 R0
SYMATTR InstName U1
SYMBOL voltage 656 -80 R90
WINDOW 0 -32 56 VBottom 2
WINDOW 3 32 56 VTop 2
SYMATTR InstName V2
SYMATTR Value 6
SYMBOL voltage 832 -96 R180
WINDOW 0 24 96 Left 2
WINDOW 3 24 16 Left 2
WINDOW 123 0 0 Left 0
WINDOW 39 0 0 Left 0
SYMATTR InstName V3
SYMATTR Value 10
SYMBOL voltage 832 176 R180
WINDOW 0 24 96 Left 2
WINDOW 3 24 16 Left 2
SYMATTR InstName V4
SYMATTR Value 10
SYMBOL voltage 1456 512 R0
WINDOW 123 0 0 Left 0
WINDOW 39 0 0 Left 0
SYMATTR InstName air
SYMATTR Value PULSE(0 10 3 0 0 2)
SYMBOL voltage 1600 320 R0
WINDOW 123 0 0 Left 0
WINDOW 39 0 0 Left 0
SYMATTR InstName relai
SYMATTR Value PULSE(0 10 4 0 0 2)
SYMBOL Misc\\NE555 2400 -32 R0
SYMATTR InstName U2
SYMBOL cap 2208 128 R0
SYMATTR InstName C1
SYMATTR Value 1µ
SYMBOL cap 2544 64 R0
SYMATTR InstName C2
SYMATTR Value 1µ
SYMBOL res 2624 -224 R0
SYMATTR InstName R7
SYMATTR Value 160k
SYMBOL voltage 2576 -144 R0
SYMATTR InstName V6
SYMATTR Value 1V
SYMBOL Digital\\or 1856 16 R0
SYMATTR InstName A2
SYMBOL LED 2000 -128 R90
WINDOW 0 0 32 VBottom 2
WINDOW 3 72 32 VTop 2
SYMATTR InstName Rouge
SYMBOL LED 1872 208 R0
SYMATTR InstName Verte
SYMBOL Optos\\4N25 1104 48 R0
SYMATTR InstName U3
SYMBOL voltage 1264 -48 R180
WINDOW 0 24 96 Left 2
WINDOW 3 24 16 Left 2
SYMATTR InstName LV_Valkyriz
SYMATTR Value 1V
SYMBOL res 1232 32 R0
SYMATTR InstName R8
SYMATTR Value 10k
TEXT -80 328 Left 2 !.tran 0 10 0
